Questionable use of curly braces in ".model sir870adp vdmos(rg=3 vto=2.9 rd=3.2m rs=1.5m rb={m} kp=100 mtriode=1.85 cgdmax=1.4n cgdmin=70p cgs=2.9n cjo=3.6n m=.4 a=.7 vj=.7 lambda=20m is=3p ksubthres=.08 mfg=siliconix vds=100 ron=5.5m qg=53.5n)"
    Error: undefined symbol in: "[m]"
Circuit: * C:\Users\ADMIN\Desktop\LTSpice\invert_sim_tran.asc

WARNING: Node X1:NC_01 is floating.
WARNING: Node X1:NC_02 is floating.

WARNING: Less than two connections to node X1:NC_01.  This node is used by M:X1:1.
WARNING: Less than two connections to node X1:NC_02.  This node is used by M:X1:2.
Direct Newton iteration for .op point succeeded.

Date: Tue May 11 11:33:26 2021
Total elapsed time: 0.104 seconds.

tnom = 27
temp = 27
method = modified trap
totiter = 1084
traniter = 1057
tranpoints = 527
accept = 525
rejected = 2
matrix size = 15
fillins = 2
solver = Normal
Matrix Compiler1: 1.44 KB object code size  0.6/0.4/[0.2]
Matrix Compiler2: 1.58 KB object code size  0.5/0.4/[0.3]


