Questionable use of curly braces in ".model sir870adp vdmos(rg=3 vto=2.9 rd=3.2m rs=1.5m rb={m} kp=100 mtriode=1.85 cgdmax=1.4n cgdmin=70p cgs=2.9n cjo=3.6n m=.4 a=.7 vj=.7 lambda=20m is=3p ksubthres=.08 mfg=siliconix vds=100 ron=5.5m qg=53.5n)"
    Error: undefined symbol in: "[m]"
Circuit: * C:\Users\ADMIN\Desktop\LTSpice\my_inverter.asc

Error on line 2 : m1 out in 0 n002 n_50n l=50n w=0.5u
	 Unable to find definition of model "w"
	
	* Error:  No unlabeled parameter permitted for MOSFET's
Error on line 3 : m2 vdd in out n001 p_50n l=50n w=1u
	 Unable to find definition of model "w"
	
	* Error:  No unlabeled parameter permitted for MOSFET's
WARNING: Node N002 is floating.
WARNING: Node N001 is floating.


Date: Mon May 10 17:02:21 2021
Total elapsed time: 4.014 seconds.

tnom = 27
temp = 27
method = trap
totiter = 2048
traniter = 0
tranpoints = 0
accept = 0
rejected = 0
matrix size = 7
fillins = 0
solver = Normal
Matrix Compiler1: 322 bytes object code size  0.5/0.3/[0.2]
Matrix Compiler2: 571 bytes object code size  0.3/0.4/[0.2]


