Circuit: * C:\Users\ADMIN\Desktop\LTSpice\ring_osc.asc

Fatal Error: Can't expand empty subcircuit: my_inverter
